Version 4
SHEET 1 1372 680
WIRE 672 -400 592 -400
WIRE 672 -384 672 -400
WIRE 592 -240 592 -320
WIRE 1168 -96 1120 -96
WIRE 752 -64 656 -64
WIRE 1008 -64 896 -64
WIRE 1120 -64 1120 -96
WIRE 1120 -64 1008 -64
WIRE 224 -48 112 -48
WIRE 384 -48 304 -48
WIRE 592 -48 592 -160
WIRE 592 -48 464 -48
WIRE 656 -48 656 -64
WIRE 656 -48 592 -48
WIRE 912 16 896 16
WIRE 1008 32 1008 16
WIRE 1040 32 1008 32
WIRE 1120 32 1120 16
WIRE 1120 32 1040 32
WIRE 112 48 112 -48
WIRE 592 80 592 -48
WIRE 912 80 912 16
WIRE 752 128 752 16
WIRE 1040 128 1040 32
WIRE 1040 128 752 128
WIRE 1040 144 1040 128
WIRE 112 192 112 128
WIRE 1040 272 1040 224
WIRE 1040 384 1040 352
FLAG 672 -384 0
FLAG 112 192 0
FLAG 1040 384 0
FLAG 912 80 0
FLAG 592 160 0
FLAG 1168 -96 out
SYMBOL LTspice\\SLR 304 -48 R90
WINDOW 0 -8 40 VBottom 2
WINDOW 3 8 40 VTop 2
WINDOW 123 71 40 VTop 2
WINDOW 39 29 40 VTop 2
WINDOW 40 50 40 VTop 2
SYMATTR InstName R1
SYMATTR Value value={R1}
SYMBOL LTspice\\SLR 592 -240 R0
SYMATTR InstName R2
SYMATTR Value value = 10k
SYMATTR SpiceLine ""
SYMBOL LTspice\\SLR 592 80 R0
SYMATTR InstName R3
SYMATTR Value value = 10k
SYMATTR SpiceLine ""
SYMBOL LTspice\\SLR 1040 144 R0
SYMATTR InstName R4
SYMATTR Value value={R4}
SYMBOL LTspice\\SLR 1120 -64 R0
SYMATTR InstName R5
SYMATTR Value value={R5}
SYMBOL LTspice\\SLC 464 -48 R90
WINDOW 0 -16 40 VBottom 2
WINDOW 3 16 40 VTop 2
WINDOW 123 37 40 VTop 2
SYMATTR InstName C1
SYMATTR Value value={C1}
SYMBOL LTspice\\SLC 1008 -64 R0
SYMATTR InstName C2
SYMATTR Value value={C2}
SYMBOL LTspice\\SLC 1040 272 R0
SYMATTR InstName C3
SYMATTR Value value={C3}
SYMBOL LTspice\\SLV 592 -320 R180
WINDOW 0 32 25 Left 2
WINDOW 3 32 9 Left 2
WINDOW 123 32 -54 Left 2
WINDOW 39 32 -12 Left 2
WINDOW 40 30 -37 Left 2
SYMATTR InstName V3
SYMATTR Value 5
SYMATTR Value2 ""
SYMATTR SpiceLine ""
SYMATTR SpiceLine2 ""
SYMATTR SpiceModel ""
SYMBOL LTspice\\SLN 832 -80 R0
SYMATTR InstName N1
SYMBOL LTspice\\SLV 112 48 R0
SYMATTR InstName V1
